
     RDKit          3D

 94 98  0  0  0  0  0  0  0  0999 V2000
   25.9240   19.5450   58.8780 C   0  0  0  0  0  0  0  0  0  0  0  0
   24.7450   18.7810   58.9920 C   0  0  0  0  0  0  0  0  0  0  0  0
   24.3820   17.9280   57.9370 C   0  0  1  0  0  0  0  0  0  0  0  0
   25.1510   17.9260   56.7510 C   0  0  0  0  0  0  0  0  0  0  0  0
   26.2690   18.6880   56.6550 N   0  0  0  0  0  0  0  0  0  0  0  0
   26.6590   19.4800   57.6890 C   0  0  0  0  0  0  0  0  0  0  0  0
   23.1660   17.0940   58.0630 C   0  0  0  0  0  0  0  0  0  0  0  0
   22.4230   16.9700   59.2510 C   0  0  0  0  0  0  0  0  0  0  0  0
   21.2790   16.1660   59.2380 C   0  0  0  0  0  0  0  0  0  0  0  0
   20.9390   15.5280   58.0930 N   0  0  0  0  0  0  0  0  0  0  0  0
   21.6530   15.6850   56.9500 C   0  0  1  0  0  0  0  0  0  0  0  0
   22.7640   16.4490   56.9560 N   0  0  0  0  0  0  0  0  0  0  0  0
   21.3290   15.0330   55.8110 N   0  0  0  0  0  0  0  0  0  0  0  0
   20.3140   14.1180   55.7590 C   0  0  0  0  0  0  0  0  0  0  0  0
   20.4760   12.7630   56.1450 C   0  0  0  0  0  0  0  0  0  0  0  0
   19.3750   11.8890   56.0330 C   0  0  0  0  0  0  0  0  0  0  0  0
   18.1370   12.3250   55.5060 C   0  0  0  0  0  0  0  0  0  0  0  0
   17.9630   13.6850   55.1980 C   0  0  1  0  0  0  0  0  0  0  0  0
   19.0640   14.5490   55.2870 C   0  0  0  0  0  0  0  0  0  0  0  0
   16.7670   14.1140   54.5360 N   0  0  0  0  0  0  0  0  0  0  0  0
   16.4050   15.3340   54.0850 C   0  0  0  0  0  0  0  0  0  0  0  0
   15.0960   15.4780   53.3180 C   0  0  1  0  0  0  0  0  0  0  0  0
   14.9720   16.5450   52.4140 C   0  0  0  0  0  0  0  0  0  0  0  0
   13.8010   16.7180   51.6670 C   0  0  0  0  0  0  0  0  0  0  0  0
   12.7320   15.8120   51.8150 C   0  0  0  0  0  0  0  0  0  0  0  0
   12.8570   14.7300   52.7040 C   0  0  0  0  0  0  0  0  0  0  0  0
   14.0380   14.5550   53.4410 C   0  0  0  0  0  0  0  0  0  0  0  0
   11.4540   16.0210   50.9890 C   0  0  0  0  0  0  0  0  0  0  0  0
   10.2360   15.8500   51.8210 N   0  0  0  0  0  0  0  0  0  0  0  0
   10.2030   16.6140   53.0940 C   0  0  0  0  0  0  0  0  0  0  0  0
    8.9690   16.2160   53.9360 C   0  0  0  0  0  0  0  0  0  0  0  0
    7.7300   16.3350   53.1180 N   0  0  0  0  0  0  0  0  0  0  0  0
    6.5140   15.9700   53.8960 C   0  0  0  0  0  0  0  0  0  0  0  0
    7.8030   15.5190   51.8800 C   0  0  0  0  0  0  0  0  0  0  0  0
    8.9920   15.9880   51.0170 C   0  0  0  0  0  0  0  0  0  0  0  0
   17.0500   16.3550   54.2800 O   0  0  0  0  0  0  0  0  0  0  0  0
   21.8210   12.2460   56.7030 C   0  0  0  0  0  0  0  0  0  0  0  0
   25.6421   20.5979   59.0263 H   0  0  0  0  0  0  0  0  0  0  0  0
   26.5971   19.1077   59.6301 H   0  0  0  0  0  0  0  0  0  0  0  0
   24.8520   18.1552   59.8903 H   0  0  0  0  0  0  0  0  0  0  0  0
   23.9433   19.5340   59.0103 H   0  0  0  0  0  0  0  0  0  0  0  0
   23.7401   18.7176   57.5194 H   0  0  0  0  0  0  0  0  0  0  0  0
   25.4631   16.8853   56.5793 H   0  0  0  0  0  0  0  0  0  0  0  0
   24.4740   18.3858   56.0160 H   0  0  0  0  0  0  0  0  0  0  0  0
   27.0498   18.0429   56.4676 H   0  0  0  0  0  0  0  0  0  0  0  0
   27.6710   19.1509   57.9674 H   0  0  0  0  0  0  0  0  0  0  0  0
   26.5284   20.4907   57.2749 H   0  0  0  0  0  0  0  0  0  0  0  0
   23.7857   16.2354   58.3610 H   0  0  0  0  0  0  0  0  0  0  0  0
   23.0991   16.5615   60.0165 H   0  0  0  0  0  0  0  0  0  0  0  0
   22.0393   17.9839   59.4376 H   0  0  0  0  0  0  0  0  0  0  0  0
   21.4190   15.3934   60.0084 H   0  0  0  0  0  0  0  0  0  0  0  0
   20.4549   16.8765   59.3993 H   0  0  0  0  0  0  0  0  0  0  0  0
   20.9535   14.5207   58.3075 H   0  0  0  0  0  0  0  0  0  0  0  0
   21.0479   16.5670   56.6931 H   0  0  0  0  0  0  0  0  0  0  0  0
   23.5419   15.8328   56.6801 H   0  0  0  0  0  0  0  0  0  0  0  0
   21.0961   15.7602   55.1198 H   0  0  0  0  0  0  0  0  0  0  0  0
   20.6004   13.8588   54.7290 H   0  0  0  0  0  0  0  0  0  0  0  0
   20.1691   13.0183   57.1700 H   0  0  0  0  0  0  0  0  0  0  0  0
   19.7053   11.0531   55.3988 H   0  0  0  0  0  0  0  0  0  0  0  0
   19.1261   11.6856   57.0850 H   0  0  0  0  0  0  0  0  0  0  0  0
   17.9668   11.7610   54.5771 H   0  0  0  0  0  0  0  0  0  0  0  0
   17.4272   12.1504   56.3280 H   0  0  0  0  0  0  0  0  0  0  0  0
   17.5573   13.9710   56.1796 H   0  0  0  0  0  0  0  0  0  0  0  0
   19.2352   14.9345   54.2711 H   0  0  0  0  0  0  0  0  0  0  0  0
   18.7470   15.2448   56.0778 H   0  0  0  0  0  0  0  0  0  0  0  0
   16.7158   13.5141   53.7003 H   0  0  0  0  0  0  0  0  0  0  0  0
   16.9369   15.1430   53.1413 H   0  0  0  0  0  0  0  0  0  0  0  0
   14.6947   16.1125   54.1220 H   0  0  0  0  0  0  0  0  0  0  0  0
   15.1120   17.4677   52.9963 H   0  0  0  0  0  0  0  0  0  0  0  0
   15.7192   16.3015   51.6444 H   0  0  0  0  0  0  0  0  0  0  0  0
   13.4093   17.7152   51.9164 H   0  0  0  0  0  0  0  0  0  0  0  0
   14.1336   16.5506   50.6319 H   0  0  0  0  0  0  0  0  0  0  0  0
   13.1440   15.1934   51.0041 H   0  0  0  0  0  0  0  0  0  0  0  0
   12.0393   14.8238   53.4338 H   0  0  0  0  0  0  0  0  0  0  0  0
   12.8456   13.8552   52.0373 H   0  0  0  0  0  0  0  0  0  0  0  0
   13.7496   14.5443   54.5025 H   0  0  0  0  0  0  0  0  0  0  0  0
   14.4615   13.6319   53.0184 H   0  0  0  0  0  0  0  0  0  0  0  0
   11.4612   17.0381   50.5701 H   0  0  0  0  0  0  0  0  0  0  0  0
   11.4335   15.2682   50.1872 H   0  0  0  0  0  0  0  0  0  0  0  0
   11.1166   16.3997   53.6680 H   0  0  0  0  0  0  0  0  0  0  0  0
   10.1424   17.6875   52.8617 H   0  0  0  0  0  0  0  0  0  0  0  0
    9.0813   15.1762   54.2767 H   0  0  0  0  0  0  0  0  0  0  0  0
    8.8933   16.8885   54.8032 H   0  0  0  0  0  0  0  0  0  0  0  0
    6.7336   16.0359   54.9718 H   0  0  0  0  0  0  0  0  0  0  0  0
    5.6969   16.6625   53.6454 H   0  0  0  0  0  0  0  0  0  0  0  0
    6.2133   14.9420   53.6454 H   0  0  0  0  0  0  0  0  0  0  0  0
    7.9402   14.4608   52.1472 H   0  0  0  0  0  0  0  0  0  0  0  0
    6.8699   15.6383   51.3098 H   0  0  0  0  0  0  0  0  0  0  0  0
    9.0630   15.3663   50.1123 H   0  0  0  0  0  0  0  0  0  0  0  0
    8.8506   17.0361   50.7146 H   0  0  0  0  0  0  0  0  0  0  0  0
   17.1445   16.5046   55.2541 H   0  0  0  0  0  0  0  0  0  0  0  0
   21.7906   12.2577   57.8025 H   0  0  0  0  0  0  0  0  0  0  0  0
   21.9927   11.2178   56.3519 H   0  0  0  0  0  0  0  0  0  0  0  0
   22.6372   12.8945   56.3519 H   0  0  0  0  0  0  0  0  0  0  0  0
  2  1  1  0
  3  2  1  0
  4  3  1  0
  5  4  1  0
  6  5  1  0
  6  1  1  0
  3  7  1  0
  8  7  1  0
  9  8  1  0
 10  9  1  0
 11 10  1  0
 12 11  1  0
 12  7  1  0
 11 13  1  0
 14 13  1  0
 15 14  1  0
 16 15  1  0
 17 16  1  0
 18 17  1  0
 19 18  1  0
 19 14  1  0
 18 20  1  0
 21 20  1  0
 22 21  1  0
 23 22  1  0
 24 23  1  0
 25 24  1  0
 26 25  1  0
 27 26  1  0
 27 22  1  0
 28 25  1  0
 29 28  1  0
 30 29  1  0
 31 30  1  0
 32 31  1  0
 33 32  1  0
 34 32  1  0
 35 34  1  0
 35 29  1  0
 36 21  1  0
 37 15  1  0
  1 38  1  0
  1 39  1  0
  2 40  1  0
  2 41  1  0
  3 42  1  1
  4 43  1  0
  4 44  1  0
  5 45  1  0
  6 46  1  0
  6 47  1  0
  7 48  1  0
  8 49  1  0
  8 50  1  0
  9 51  1  0
  9 52  1  0
 10 53  1  0
 11 54  1  6
 12 55  1  0
 13 56  1  0
 14 57  1  0
 15 58  1  0
 16 59  1  0
 16 60  1  0
 17 61  1  0
 17 62  1  0
 18 63  1  1
 19 64  1  0
 19 65  1  0
 20 66  1  0
 21 67  1  0
 22 68  1  1
 23 69  1  0
 23 70  1  0
 24 71  1  0
 24 72  1  0
 25 73  1  0
 26 74  1  0
 26 75  1  0
 27 76  1  0
 27 77  1  0
 28 78  1  0
 28 79  1  0
 30 80  1  0
 30 81  1  0
 31 82  1  0
 31 83  1  0
 33 84  1  0
 33 85  1  0
 33 86  1  0
 34 87  1  0
 34 88  1  0
 35 89  1  0
 35 90  1  0
 36 91  1  0
 37 92  1  0
 37 93  1  0
 37 94  1  0
M  END
$$$$
